132
interface
I         6.3825              0          3.945
I          3.945         6.3825              0
I         -3.945         6.3825              0
I        -6.3825              0          3.945
I              0         -3.945         6.3825
I          3.945        -6.3825              0
I         6.3825              0         -3.945
I              0          3.945        -6.3825
I        -6.3825              0         -3.945
I         -3.945        -6.3825              0
I              0         -3.945        -6.3825
I              0          3.945         6.3825
I         1.7025         2.8125         6.7425
I           1.62         4.8675         5.4675
I         -0.705         5.4375          5.115
I         -2.055          3.735         6.1725
I          -0.57         2.1075         7.1775
I          0.705        -5.4375          5.115
I          2.055         -3.735         6.1725
I         7.1775          -0.57         2.1075
I         6.7425         1.7025         2.8125
I          3.735         6.1725         -2.055
I         2.1075         7.1775          -0.57
I        -4.8675         5.4675          -1.62
I        -5.4375          5.115          0.705
I        -6.7425        -1.7025         2.8125
I        -5.4675          -1.62         4.8675
I         2.8125        -6.7425        -1.7025
I         4.8675        -5.4675          -1.62
I          5.115          0.705        -5.4375
I        -1.7025         2.8125        -6.7425
I        -6.1725         -2.055         -3.735
I         3.6225         1.1175         6.4725
I           3.45           5.49          3.765
I        -1.4925         6.6975         3.0225
I        -4.3725          3.075         5.2575
I        -1.2075         -0.375          7.395
I         1.4925        -6.6975         3.0225
I         4.3725         -3.075         5.2575
I          7.395        -1.2075         -0.375
I         6.4725         3.6225         1.1175
I          3.075         5.2575        -4.3725
I         -0.375          7.395        -1.2075
I          -5.49          3.765          -3.45
I        -6.6975         3.0225         1.4925
I        -6.4725        -3.6225         1.1175
I         -3.765          -3.45           5.49
I         1.1175        -6.4725        -3.6225
I           5.49         -3.765          -3.45
I         3.0225         1.4925        -6.6975
I        -3.6225         1.1175        -6.4725
I        -5.2575        -4.3725         -3.075
I          5.115         -0.705         5.4375
I         4.8675         5.4675           1.62
I        -2.1075         7.1775           0.57
I        -6.1725          2.055          3.735
I        -1.7025        -2.8125         6.7425
I         2.1075        -7.1775           0.57
I         6.1725         -2.055          3.735
I         6.7425        -1.7025        -2.8125
I         5.4375          5.115         -0.705
I          2.055          3.735        -6.1725
I        -2.8125         6.7425        -1.7025
I        -5.4675           1.62        -4.8675
I        -7.1775           0.57         2.1075
I        -5.4375         -5.115         -0.705
I          -1.62        -4.8675         5.4675
I         -0.705        -5.4375         -5.115
I         5.4675          -1.62        -4.8675
I           0.57         2.1075        -7.1775
I         -5.115         -0.705        -5.4375
I         -3.735        -6.1725         -2.055
I         1.2075          0.375          7.395
I          3.765           3.45           5.49
I         1.1175         6.4725         3.6225
I         -3.075         5.2575         4.3725
I        -3.0225         1.4925         6.6975
I        -1.1175        -6.4725         3.6225
I          3.075        -5.2575         4.3725
I         6.6975        -3.0225         1.4925
I          7.395         1.2075          0.375
I         5.2575         4.3725         -3.075
I         1.4925         6.6975        -3.0225
I          -3.45           5.49         -3.765
I        -6.4725         3.6225        -1.1175
I         -7.395        -1.2075          0.375
I          -5.49         -3.765           3.45
I          0.375         -7.395        -1.2075
I           3.45          -5.49         -3.765
I         3.6225        -1.1175        -6.4725
I        -1.2075          0.375         -7.395
I        -4.3725         -3.075        -5.2575
I         3.0225        -1.4925         6.6975
I           5.49          3.765           3.45
I          0.375          7.395         1.2075
I        -5.2575         4.3725          3.075
I        -3.6225        -1.1175         6.4725
I         -0.375         -7.395         1.2075
I         5.2575        -4.3725          3.075
I         6.4725        -3.6225        -1.1175
I         6.6975         3.0225        -1.4925
I         4.3725          3.075        -5.2575
I        -1.1175         6.4725        -3.6225
I         -3.765           3.45          -5.49
I         -7.395         1.2075         -0.375
I        -6.6975        -3.0225        -1.4925
I          -3.45          -5.49          3.765
I        -1.4925        -6.6975        -3.0225
I          3.765          -3.45          -5.49
I         1.2075         -0.375         -7.395
I        -3.0225        -1.4925        -6.6975
I         -3.075        -5.2575        -4.3725
I           0.57        -2.1075         7.1775
I         5.4675           1.62         4.8675
I         2.8125         6.7425         1.7025
I         -3.735         6.1725          2.055
I         -5.115          0.705         5.4375
I        -2.8125        -6.7425         1.7025
I          3.735        -6.1725          2.055
I         5.4375         -5.115          0.705
I         7.1775           0.57        -2.1075
I         6.1725          2.055         -3.735
I          0.705         5.4375         -5.115
I          -1.62         4.8675        -5.4675
I        -6.7425         1.7025        -2.8125
I        -7.1775          -0.57        -2.1075
I        -4.8675        -5.4675           1.62
I        -2.1075        -7.1775          -0.57
I           1.62        -4.8675        -5.4675
I         1.7025        -2.8125        -6.7425
I          -0.57        -2.1075        -7.1775
I         -2.055         -3.735        -6.1725
